384
Properties=species:S:1:pos:R:3 pbc="T T T"
Cu       3.45979301       6.07090417       2.40639321
Cu       5.86214436      -7.39061191       0.33872580
Cu      -0.21404037      -8.13547422       2.76646368
Cu       6.27142521       5.06188473      -0.38976799
Cu      -2.85952420      -0.57671758      -0.47579340
Cu       7.99766020      -2.18267501      -2.86257699
Cu      -2.73826074       7.37874875       0.63761682
Cu      -3.58274365      -6.49179071       6.35739356
Cu      -3.43872960      -5.54289140      -1.31684084
Cu      -0.05401915       5.58080597       2.61581351
Cu      -8.49989422      -2.94037375       3.13871452
Cu      -1.97429910      -5.12760817      -4.72936123
Cu       1.54335359       5.40615425      -2.75512422
Cu      -3.46013606      -1.89995281       7.31855178
Cu      -8.04857560       5.30101239      -1.67822855
Cu       6.64386354       5.49348783      -4.55417006
Cu       1.44182107      -8.82551022       1.07179036
Cu      -0.96680199      -3.69262508      -1.87213946
Cu      -1.58543799       2.05026897      -0.75345204
Cu      -3.43670389       5.26687001       4.39214566
Cu      -2.85851346      -9.20735802       1.30716448
Cu       3.21106788      -8.66741789      -3.07249234
Cu      -2.52244568       3.93737389      -2.73424651
Cu       1.90410502      -4.20848988       0.31292251
Cu       2.54926446       6.87038454       0.34349655
Cu      -5.86909892       1.91905252      -1.65958224
Cu      -3.85055724       0.19143492       5.66009737
Cu       2.04854086       2.98170346       4.44768675
Cu      -1.86835085       0.80315158      -8.78966982
Cu      -2.74373200      -6.20226116       1.88409350
Cu       8.91508437       1.18367632      -1.40180039
Cu      -0.17687276      -5.75754323      -2.41506799
Cu      -4.80699324      -2.94427954      -1.74067872
Cu       1.42968028       8.31094003      -0.52636279
Cu      -6.87038892      -1.22632393      -0.34645504
Cu      -0.69235008       2.24245431       4.38415547
Cu      -1.90440514       3.87948672      -6.25848081
Cu      -0.39143541      -3.32686018      -4.66231128
Cu       4.61841687      -0.23768412      -7.81424810
Cu       0.18885326      -0.27478143      -5.40450363
Cu      -8.36152341       4.78494318       0.39305804
Cu       4.82810176       3.35018332       4.64707177
Cu      -1.75705243       6.55639066      -3.06968754
Cu       8.57020688       2.15757093       0.66741810
Cu       1.03743222      -7.66778179      -3.70393484
Cu      -2.99197536      -2.04346214      -2.96570874
Cu       9.48390787       0.44447511       2.74508353
Cu       2.46525624      -4.40285263       7.79598007
Cu       4.47220966      -5.79988520       2.31785885
Cu       3.13644916      -0.86237681       2.00840967
Cu       0.34708173      -5.57573154       5.49099760
Cu       9.56411575      -1.79833877      -0.39665821
Cu       1.93836811       4.59931148       6.36525614
Cu       8.00431948       0.64153573      -6.28704011
Cu      -5.35381403       3.49514459      -6.22534611
Cu       5.67005153      -5.21131243      -4.60032824
Cu      -3.11760237       5.09913756      -0.21326905
Cu      -8.26159229      -2.16800750       5.43563821
Cu      -2.53117637      -3.46943364       6.06739546
Cu      -4.53751063      -2.44832658       4.08201049
Cu      -0.59600160      -8.40916182       0.38989856
Cu       2.63911235      -6.43528533       1.12683765
Cu       5.37113815       2.03466762       1.79285790
Cu       1.49562864      -1.45373854       6.43706892
Cu       4.94229822      -6.23123880       5.89031396
Cu       4.04476477       3.94602220       7.79787892
Cu       3.96847992       0.20577794      -3.75468910
Cu       1.71943873       9.09993199       2.12442000
Cu       6.52354070       2.74047054      -5.40655424
Cu       0.55276002      -8.15313106       5.17165017
Cu      -2.08697791       1.33711898       7.80668678
Cu      -4.31013480       7.91900943      -3.76427337
Cu      -8.68756918       2.65154553      -2.59987156
Cu      -1.51160889      -6.47409167       5.45416224
Cu       4.24475838       5.92061080       5.20880934
Cu      -5.54277893       1.21492663       4.81155933
Cu       2.80891618      -5.83160367      -3.90576002
Cu      -8.92468542      -1.86777663      -0.84388536
Cu      -1.41212568      -5.63090922       8.39919146
Cu       2.15223425      -0.93426290      -6.77544278
Cu       2.90413583       1.22034488       5.04591950
Cu       7.22963434      -4.70993599       0.95880409
Cu       3.47033853      -8.36171031       3.87932554
Cu       6.85873220       3.28708291      -1.31662847
Cu       8.77237560       4.17429641       3.23263394
Cu       5.75783146       1.66671681      -2.43668014
Cu      -0.22026725       3.56024782       0.37696545
Cu       1.63093620      -0.30464972      -9.91469679
Cu      -6.06149337      -4.03198863       4.74979910
Cu       1.66694250      -4.71444001       2.53516105
Cu      -3.03808697       2.85077384       6.62296905
Cu       4.42104935      -4.09953531      -3.24596041
Cu      -1.87279363       3.39470838       1.92675448
Cu       6.43897007       1.34565858       5.85676563
Cu       3.61168204       2.91443099      -2.53928799
Cu      -0.06980722       6.77817842      -1.52929533
Cu      -8.36367073      -4.50985504      -1.54787200
Cu      -5.73868548       0.24444678      -5.73780451
Cu       5.80254985      -0.52266022       5.39023959
Cu       6.66875282       4.86833462       3.70753296
Cu       0.94219043       7.32304550      -3.45467699
Cu       8.70887637      -1.33014457      -4.91770803
Cu      -6.63953801      -4.23853963      -3.25552077
Cu      -4.26154672       2.74204987       8.64701934
Cu      -5.47985088       7.54343920      -1.40796232
Cu      -4.81770130       2.67409754      -0.06886911
Cu       3.96038255      -2.67519203       1.01335611
Cu      -4.04383426       4.57324792      -7.31344655
Cu      -0.21566699      -7.94561137      -6.33600713
Cu       8.52736284      -1.73604244       5.40487388
Cu       2.52908378       4.40861129      -6.54081783
Cu       8.10970063      -5.57543339      -2.10290954
Cu       4.36881697      -2.11703802       7.55538634
Cu       4.61373943      -2.05814649      -2.87554710
Cu       1.58789209      -0.37419999      -3.41786562
Cu       3.85517472       7.51590568      -2.50156612
Cu       2.45959669      -7.72578021      -5.74738600
Cu      -1.89242898      -1.36600039      -5.28624184
Cu       5.95308218       4.66666336       6.79880373
Cu       7.48271563      -1.28224235       1.44025207
Cu       1.88418238       0.27009201       7.61616430
Cu       0.14878132       9.45087505      -3.68873472
Cu      -1.14929471      -3.81728553      -8.61809342
Cu      -2.34483090       4.31555470      -8.69659125
Cu       5.93777262       6.61321203       1.79200298
Cu       1.55525248      -8.88316220      -1.64919624
Cu      -3.73831657       2.26852661       3.39289643
Cu       2.27829810      -1.65722767       9.31324999
Cu       7.64868393       1.76645105      -3.42302513
Cu       4.07451998      -3.71318149       4.25922028
Cu      -5.58675949      -4.62746045      -6.27351746
Cu       0.50895624       6.49215915       6.16504136
Cu      -6.16883756      -7.16801740      -2.63386055
Cu       0.42446515      -2.80510710       8.22047833
Cu      -2.82021741      -1.34355582       4.86191812
Cu      -0.01382549       7.87990803       1.30850279
Cu       5.80764294      -4.72200291      -6.98011896
Cu       7.37894768      -0.12964642      -2.53484680
Cu      -1.79806222       4.97342996       8.45506323
Cu       4.43739802      -3.84636644      -0.89111866
Cu       5.41592757      -2.32691364      -5.97847746
Cu      -3.54156372       2.12783410      -2.05601351
Cu      -1.80023336       0.06703086       2.82393468
Cu       1.98760307       5.30966368       8.46684059
Cu      -0.32080543       1.06308214      -2.89190362
Cu       2.94331286      -5.35205435      -1.34979376
Cu       7.01730879      -1.18457488      -6.73324028
Cu       4.13766101       9.20819972      -0.85708111
Cu      -4.67508388       0.52065397       1.34551159
Cu       0.11889840       1.64899324       6.65320687
Cu      -4.43296547      -3.64627341      -8.16874930
Cu      -6.32633405       6.14407798       0.09958467
Cu      -0.29274774       8.33103819      -5.63012675
Ni       8.78228753       1.35853968       5.00042822
Ni       2.66004288       1.66757560       9.61368821
Ni     -10.09560577      -0.35649014       0.16901301
Ni      -9.25120876       0.15426247       3.25335132
Ni       1.43783751       0.84556371      -7.69354169
Ni      -0.05216909      -0.40188018       0.22430257
Ni       5.80453499      -1.86676247      -1.12285622
Ni      -3.56184345      -3.14740954      -6.24267658
Ni      -6.81786775       2.57625412       2.35151012
Ni       3.56020397       2.69364722      -9.13258101
Ni      -3.38095787      -3.82087446      -3.82100538
Ni       3.09490671      -7.61480369       5.82927148
Ni       6.00633879      -7.50210229      -2.72511059
Ni      -0.01892749       1.01197576       9.23739604
Ni      -2.04784599       7.71533262       5.16703585
Ni      -6.53439938      -4.71522983       2.47516819
Ni      -4.81980521       7.91278658       4.04646041
Ni      -9.62770786       2.13977024       1.75753717
Ni       5.82026342       0.30425178       0.28247103
Ni       4.30464885       0.46171043       9.26316872
Ni      -5.74715853      -1.46108906      -7.20695058
Ni      -4.89701087       5.22441908       6.71965723
Ni       4.45952635       1.85074131      -6.79810006
Ni      -0.27702047       3.90833871      -8.14858425
Ni       0.41913190      -5.74125569       0.78872280
Ni      -3.40343429      -1.70067664      -8.07793784
Ni       7.24835121      -4.35383292       5.18873575
Ni      -3.50604119       3.42428818      -4.64133048
Ni      -0.16440653       6.08453859      -6.32316264
Ni      -5.26636530       1.82717003      -8.29924598
Ni       0.46138867      10.09384333       0.16182824
Ni       1.88777670       3.84242800      -8.89564470
Ni      -2.44422876      -3.84195998       3.35995164
Ni      -8.88522484       0.08763566      -3.51470638
Ni      -6.76802499      -1.16385567       1.86920883
Ni       1.83241635       3.55504190       1.38660941
Ni      -4.45771350      -4.59811284       1.54880817
Ni      -7.39003979       1.74638757       6.06115600
Ni       4.36754118      -9.02811132       0.43231478
Ni       1.99005216      -2.25945141      -4.12108396
Ni      -2.81919322      -8.00059127      -4.67000123
Ni      -3.84382226      -8.60075247       3.90842505
Ni      -5.39366161       2.52764645       6.53434322
Ni      -4.73312978      -8.39170723       0.48066579
Ni       4.91176046       5.74944188      -6.54154979
Ni       0.77902440      -3.15782053      -6.34679343
Ni       4.55516974       7.94837132       3.30432626
Ni       1.80733074      -4.01288948      -9.19514693
Ni      -5.59487291       0.44451975       7.02465127
Ni      -6.70909684      -1.45352000       4.21922513
Ni       0.85179456       7.29160699       4.22389671
Ni      -7.17556911       3.86816193      -5.43570167
Ni       2.56104162       2.68638389      -4.29846330
Ni      -5.48270392      -1.40016592      -3.92202355
Ni      -4.12594748      -0.00405923       3.60808975
Ni      -3.58632665       0.01888982      -3.62454705
Ni      -4.96444840       5.76615548      -5.49876071
Ni       2.22365858       6.83739559      -5.32230030
Ni       7.81458375      -1.66362284       3.43241403
Ni      -0.55293261       9.40199047       3.68333461
Ni      -0.88167065      -1.34681373      -3.33218737
Ni      -5.94375171      -1.84026460       7.96214120
Ni      -0.36267893      -1.62243814       4.25540290
Ni       3.77861220       5.08121547      -3.24519412
Ni       1.26847313       0.12465896       1.67867474
Ni      -0.69994493       3.68156712      -4.53754615
Ni       8.24187617      -4.77517578       3.07136673
Ni       8.48805055       5.07742859       0.22998378
Ni      -4.69105347       4.48099089       2.99166227
Ni      -7.00553562      -6.60556422      -0.84017287
Ni       1.83636391       2.31113905      -0.61288742
Ni      -6.61056058      -6.99132668       2.37999201
Ni       4.18595392      -0.34221820       3.74317067
Ni      -3.54046272      -1.35073350       2.01899313
Ni      -8.36825913      -2.93297166      -3.94439814
Ni      -2.52372265      -7.19416543      -2.30405895
Ni      -6.04739118       2.34057928      -3.83635329
Ni      -2.26554450       6.45652326      -7.20356685
Ni       6.02173394       6.46482795      -2.54654641
Ni      -6.77816618       1.00334623       1.03544178
Ni       2.84049457       2.34241129       6.70419648
Ni      -4.69730769       0.34751074       9.11868262
Ni      -3.86606473      -6.16506999      -3.67627547
Ni      -7.98129093       0.98014260      -1.19958114
Ni       3.79206891       3.22946082       1.04855279
Ni       6.11167071      -4.32137069       3.30964398
Ni      -3.26784527      -6.78838883      -6.52404644
Ni       7.02125900      -3.92835400      -2.97858163
Ni       6.37936327       7.97792389      -0.66784629
Ni       3.80994313      -3.14375305      -8.96252644
Ni       2.12521072       9.43500947      -2.62919400
Ni      -6.88010845       4.52256168      -3.23846897
Ni       2.54945217      -5.59510014       5.23537984
Ni      -1.58604180      -0.05976749       5.98763332
Ni      -0.96692272       1.98026033      -5.62374628
Ni      -2.62582863       8.73221235      -2.41440793
Ni       6.05858614      -0.35363084       7.79408578
Ni       2.77081741      -0.41897842      -0.48699848
Ni      -0.27758946      -1.31318356      -9.55131891
Ni      -2.57173542       9.32363283       0.13584129
Ni      -4.89104626       4.84333710      -2.90040559
Ni      -5.87317078      -3.74389757       6.96353289
Ni      -0.28378718      -3.90128152       0.34890101
Ni      -7.13334235      -4.34101464       0.56835029
Ni      -4.35688748       8.83150961       1.74395585
Ni      -0.11795881      -1.29478063      10.10438477
Ni       3.59033134      -4.89782128      -6.42771633
Ni      -7.48098524       3.93328834       5.66332736
Ni       6.39805194      -7.55332104       2.69215563
Ni       8.95674186       3.91682290      -1.46298522
Ni      -0.04780635      -6.03277638       2.98882962
Ni       1.91742108      -3.66053112      -1.96770812
Ni      -2.04541648       6.20198049       2.84181757
Ni       1.55948992      -6.20910720       7.36684375
Ni       4.20637578      -7.15922157      -0.82775559
Ni      -2.15332641      -0.59690975       9.89366662
Ni       1.78241752      -0.71249873       3.69770270
Ni      -5.93392860       6.05460172       2.26354770
Ni      -3.54003278       0.41385325      -7.23163096
Ni      -0.73386572      -2.52749223       6.18854796
Ni      -6.05641263       4.32434760       1.11081584
Ni       6.58083343       2.27893774       3.84564745
Ni      -4.59010398      -6.38428339       0.11426634
Ni       6.89343195       3.79056395       1.79854860
Ni      -1.31419068       2.74788231       9.67490918
Ni       6.34712261      -4.50181765      -0.93866306
Ni      -1.73849134       0.65339614       0.85396957
Ni      -1.99499048      -9.42668007       3.51986677
Ni      -6.46147499       5.36551957       4.15199931
Ni      -2.06543499       6.01945905       6.64824730
Ni      -6.57031832       0.33532847      -3.49094402
Ni       1.74109578      -5.18103280      -5.61428587
Ni       0.32659949      -2.76353207       1.98945015
Ni      -7.28981786       1.96972980      -6.09404165
Ni      -7.12674349      -2.34626828      -5.44908707
Ni      -7.22335534       3.15264471      -0.12779617
Ni       4.15823042       1.75641227      -0.48346716
Ni       0.77406308      -2.17233866      -0.26139908
Ni      -0.95941615      -8.37307867      -2.76736350
Ni      -8.59244017      -5.21730750       1.95632710
Ni      -1.35750016       4.67980669       4.04444733
Ni      -7.83159818       5.45964244       2.58294365
Ni      -5.84626668      -4.85564840      -1.04690244
Ni      -3.58418773      -3.25459859       0.00951279
Ni       0.53281924      -3.52288834       4.98141195
Ni      -2.88817029      -9.36251613      -1.53688173
Ni       9.44026426      -2.61632823       1.94807808
Ni       4.90306350      -3.67064072       6.24484097
Ni       6.49294292      -6.29877190       4.46334823
Ni       1.91741342       6.09174345      -7.63499323
Ni       8.00900516       3.66753724       5.20318211
Ni       3.17811853       1.14365795       1.71959518
Ni      -9.72114113      -1.98456810       1.31145041
Ni       7.71068686      -6.60911279       0.35842086
Ni       4.78879344       6.48697058      -4.53142456
Ni      -1.62371267      -6.55549894      -0.20139196
Ni       2.38896060      -2.76021428       2.26828180
Ni       2.67455780       4.89192687       4.11676027
Ni      -5.07264512      -0.68203192      -1.83227396
Ni      -0.41401998      -5.03631136      -6.44665503
Ni      -3.42132712      -5.89868797       3.99741762
Ni       0.66915285       3.42930445       8.79784221
Ni       4.41624788      -5.12768812       7.59598899
Ni      -1.23781534       4.29575861       6.02736932
Ni      -1.38227649       9.27230483       1.78169207
Ni      -8.93799133       3.49362348       3.28531204
Ni      -2.48943501       8.28315986      -5.25564740
Ni      -1.58165061      -2.33564757      -0.37848735
Ni       2.71094692       7.58814331       5.15906672
Ni      -2.37137122      -3.33515885       8.90389692
Ni       6.35873025      -0.46872370      -4.77742367
Ni      -1.90363317       5.33442357      -4.74243605
Ni       1.10520088       5.44526052       0.55074349
Ni       5.05739014       3.90113957      -4.23177929
Ni      -0.88101620       6.27325959       0.40875375
Ni       9.53479244       0.20397202       0.33642754
Ni       6.86573142      -3.34105216      -5.02478933
Ni       9.51149522       0.60046617      -3.76835688
Ni       2.55700497      -2.32324690       4.84134376
Ni       7.75912525       4.63861515      -3.12419172
Ni       4.80814683       4.45669755       2.80155258
Ni      -0.25569623      -9.00646552      -4.59579471
Ni      -7.56512329      -4.29418594      -5.18605593
Ni      -6.13106692       7.89443068       1.44523557
Ni       3.60849775       5.80013475      -1.05427982
Ni       8.98480509      -4.48094005      -0.38306711
Ni      -0.83659048      -0.33423871       7.89560385
Ni      -0.69249018       8.62244102      -1.06339065
Ni       4.88112188       2.13239470       7.45821539
Ni       5.70391761      -0.85843354       2.32728148
Ni       6.21685871       0.97357022      -7.93556414
Ni      -1.30430857      -6.50008870      -7.65631740
Ni       0.64587559       2.14705097       2.82558681
Ni       1.81088368       4.27712638      -1.10371221
Ni       0.75713554      -5.71281084      -8.23587716
Ni      -4.20942849      -8.56847222      -3.28134926
Ni      -0.26027333     -10.00876590      -1.56443923
Ni      -0.18791001       1.72326668      -9.70402851
Ni      -5.34661145      -6.85933991       4.47667125
Ni      -0.55856126      -1.12726934      -7.55754382
Ni      -7.45676288       0.74719922       3.94806016
Ni       3.51574299      -2.87761339      -5.44396730
Ni      -7.27520789      -0.54914825       6.17385723
Ni      -2.58686702       9.02667893       3.60456785
Ni      -4.76012483      -0.01041802      -9.04022251
Ni      -6.22398312       7.09600845      -3.94987029
Ni      -7.19939171      -5.98251003      -4.06635918
Ni       0.67378349       4.55025073       4.40387996
Ni       1.37954083      -7.22969741      -0.52166637
Ni      -5.05128981       4.07382398       5.04759156
Ni       4.28526205       4.05720360      -7.84252635
Ni       4.67182987       8.68302392       1.27803899
Ni       7.74383421      -0.09001626       6.52274341
Ni       6.38858521       6.83290388       4.01440033
Ni      -3.07966856      -4.87806066      -7.28402562
Ni       3.75706561      -0.01394777       6.63562977
Ni      -0.11950496       3.45069218      -2.13725259
Ni       2.42641309       0.38617575      -5.16208868
Ni       2.30367369      -6.53929558       3.25657031
Ni      -9.46455474       3.54009864      -0.86871973
Ni      -0.54221768      -4.40534470       7.06027647
Ni       5.66479958      -2.29268070       4.01397884
Ni       8.00923931       5.81016730       2.13975068
Ni       7.65702151      -2.89654673      -0.37757849
Ni       2.70661977       0.83209801      -2.19707173
Ni      -7.84189844      -0.11553957      -5.65538288
Ni       6.54821969      -2.43617700       6.63234500
Ni      -3.34716561       6.87813431      -1.84703315
Ni      -7.51170324      -5.42365390       4.31826599
Ni      -5.15035617      -2.26462940       0.93351720
Ni       9.91237056      -0.70043528      -2.04280044
